Version 4
SHEET 1 880 680
WIRE 32 -160 -64 -160
WIRE 80 -160 32 -160
WIRE 176 -160 80 -160
WIRE 176 -144 176 -160
WIRE 176 -144 144 -144
WIRE 32 -128 32 -160
WIRE 176 -128 176 -144
WIRE -144 -32 -288 -32
WIRE -64 -32 -64 -160
WIRE 80 -32 80 -160
WIRE 144 -32 144 -144
WIRE 32 32 32 -48
WIRE 176 32 176 -48
WIRE 32 160 32 112
WIRE 176 160 176 112
WIRE -288 256 -288 -32
WIRE 32 256 32 224
WIRE 32 256 -288 256
WIRE 176 256 176 224
WIRE 176 256 32 256
WIRE 32 272 32 256
FLAG 32 272 0
SYMBOL res -160 -16 R270
WINDOW 0 32 56 VTop 2
WINDOW 3 0 56 VBottom 2
SYMATTR InstName R1
SYMATTR Value 843
SYMBOL res 16 16 R0
WINDOW 3 35 72 Left 2
SYMATTR InstName R2
SYMATTR Value 500k
SYMBOL res 160 16 R0
SYMATTR InstName R3
SYMATTR Value 500k
SYMBOL cap 16 160 R0
SYMATTR InstName C1
SYMATTR Value 100µ
SYMBOL cap 160 160 R0
SYMATTR InstName C2
SYMATTR Value 10µ
SYMBOL cap 144 -48 R90
WINDOW 0 0 32 VBottom 2
WINDOW 3 32 32 VTop 2
SYMATTR InstName C3
SYMATTR Value 1µ
SYMBOL voltage 32 -144 R0
WINDOW 123 24 44 Left 2
WINDOW 39 0 0 Left 0
SYMATTR InstName V1
SYMATTR Value ""
SYMATTR Value2 AC 500 -74
SYMBOL voltage 176 -144 R0
WINDOW 123 0 0 Left 0
WINDOW 39 0 0 Left 0
SYMATTR InstName V2
SYMATTR Value 0
TEXT -282 240 Left 2 !.ac lin 300000 0.0001 1
