Version 4
SHEET 1 880 680
WIRE -144 -32 -288 -32
WIRE 32 -32 -64 -32
WIRE 176 -32 32 -32
WIRE 32 32 32 -32
WIRE 176 32 176 -32
WIRE -288 64 -288 -32
WIRE 32 160 32 112
WIRE 176 160 176 112
WIRE -288 256 -288 144
WIRE 32 256 32 224
WIRE 32 256 -288 256
WIRE 176 256 176 224
WIRE 176 256 32 256
WIRE 32 272 32 256
FLAG 32 272 0
SYMBOL res -160 -16 R270
WINDOW 0 32 56 VTop 2
WINDOW 3 0 56 VBottom 2
SYMATTR InstName R1
SYMATTR Value 843
SYMBOL res 16 16 R0
SYMATTR InstName R2
SYMATTR Value 700K
SYMBOL res 160 16 R0
SYMATTR InstName R3
SYMATTR Value 500k
SYMBOL cap 16 160 R0
SYMATTR InstName C1
SYMATTR Value 12µ
SYMBOL cap 160 160 R0
SYMATTR InstName C2
SYMATTR Value 10µ
SYMBOL voltage -288 48 R0
WINDOW 3 24 152 Left 2
WINDOW 123 18 118 Left 2
WINDOW 39 0 0 Left 0
SYMATTR InstName V1
SYMATTR Value ""
SYMATTR Value2 AC 250
TEXT -272 192 Left 2 !.ac dec 100 0.1 2
